powerfactory/powerfactory-converter/src/test/resources/Transformer-Phase-GB-Neutral-with-mTaps.xiidm
<?xml version="1.0" encoding="UTF-8"?>
<iidm:network xmlns:iidm="http://www.powsybl.org/schema/iidm/1_18" id="Transformer-Phase-GB-Neutral-with-mTaps" caseDate="2021-01-01T10:00:00.000+02:00" forecastDistance="0" sourceFormat="POWER-FACTORY" minimumValidationLevel="STEADY_STATE_HYPOTHESIS">
    <iidm:substation id="S11">
        <iidm:voltageLevel id="VL11" nominalV="165.0" topologyKind="NODE_BREAKER">
            <iidm:nodeBreakerTopology>
                <iidm:busbarSection id="VL11_1 Bus 1-Slack" node="0"/>
                <iidm:switch id="VL11_Switch" kind="BREAKER" open="false" node1="0" node2="1"/>
                <iidm:switch id="VL11_Switch#0" kind="BREAKER" open="false" node1="0" node2="2"/>
                <iidm:switch id="VL11_Switch#1" kind="BREAKER" open="false" node1="0" node2="3"/>
                <iidm:bus v="174.89999389648438" angle="0.0" nodes="0,1,2,3"/>
            </iidm:nodeBreakerTopology>
            <iidm:generator id="sym_1_1" energySource="OTHER" minP="0.0" maxP="59.95000076293945" targetP="59.95000076293945" localTargetV="174.89999055862427" localTargetQ="0.0" node="3">
                <iidm:minMaxReactiveLimits minQ="0.0" maxQ="0.0"/>
                <iidm:voltageRegulation mode="VOLTAGE" regulating="true"/>
            </iidm:generator>
        </iidm:voltageLevel>
    </iidm:substation>
    <iidm:substation id="S12">
        <iidm:voltageLevel id="VL12" nominalV="165.0" topologyKind="NODE_BREAKER">
            <iidm:nodeBreakerTopology>
                <iidm:busbarSection id="VL12_2 Bus 2" node="0"/>
                <iidm:busbarSection id="VL12_3 Bus 2-Load" node="3"/>
                <iidm:switch id="VL12_Switch" kind="BREAKER" open="false" node1="0" node2="1"/>
                <iidm:switch id="VL12_Switch#0" kind="BREAKER" open="false" node1="0" node2="2"/>
                <iidm:switch id="VL12_Switch#1" kind="BREAKER" open="false" node1="3" node2="4"/>
                <iidm:switch id="VL12_Switch#2" kind="BREAKER" open="false" node1="3" node2="5"/>
                <iidm:switch id="VL12_Switch#3" kind="BREAKER" open="false" node1="3" node2="6"/>
                <iidm:bus v="170.83094787597656" angle="-0.38687682151794434" nodes="0,1,2"/>
                <iidm:bus v="170.26544189453125" angle="-0.7061053514480591" nodes="3,4,5,6"/>
            </iidm:nodeBreakerTopology>
            <iidm:load id="lod_3_1" loadType="UNDEFINED" p0="50.0" q0="25.0" node="5"/>
        </iidm:voltageLevel>
        <iidm:twoWindingsTransformer id="trf_2_3_1" r="0.08712000000000002" x="8.306373889178623" g="3.1588613406795225E-4" b="-0.002920117307584649" ratedU1="165.0" ratedU2="165.0" ratedS="400.0" node1="2" voltageLevelId1="VL12" node2="6" voltageLevelId2="VL12">
            <iidm:phaseTapChanger tapPosition="1" loadTapChangingCapabilities="true" regulationMode="CURRENT_LIMITER" regulating="false">
                <iidm:step rho="1.0" alpha="9.979999542236328"/>
                <iidm:step rho="1.0" alpha="-0.0"/>
                <iidm:step rho="1.0" alpha="-9.979999542236328"/>
            </iidm:phaseTapChanger>
        </iidm:twoWindingsTransformer>
    </iidm:substation>
    <iidm:line id="lne_1_2_1" r="5.276180267333984" x="16.109027862548828" b1="6.35592357635498E-4" b2="6.35592357635498E-4" node1="1" voltageLevelId1="VL11" node2="1" voltageLevelId2="VL12"/>
    <iidm:line id="lne_1_3_1" r="5.276180267333984" x="16.109027862548828" b1="6.35592357635498E-4" b2="6.35592357635498E-4" node1="2" voltageLevelId1="VL11" node2="4" voltageLevelId2="VL12"/>
</iidm:network>
